Circuit: * D:\Projects\GuitarPreamp\Tone_Stack_V2\Modified Baxandall.asc

Ignoring empty pin current: Ix(u1:1)
Ignoring empty pin current: Ix(u1:2)
.step r=1000 c=8e-009
.step r=50000 c=8e-009
.step r=99000 c=8e-009
.step r=1000 c=1e-008
.step r=50000 c=1e-008
.step r=99000 c=1e-008
.step r=1000 c=1.2e-008
.step r=50000 c=1.2e-008
.step r=99000 c=1.2e-008
.step r=1000 c=1.4e-008
.step r=50000 c=1.4e-008
.step r=99000 c=1.4e-008

Date: Thu Aug 01 23:23:35 2019
Total elapsed time: 0.302 seconds.

tnom = 27
temp = 27
method = trap
totiter = 0
traniter = 0
tranpoints = 0
accept = 0
rejected = 0
matrix size = 11
fillins = 16
solver = Normal

