Circuit: * D:\Projects\GuitarPreamp\Preamp_V2\Simulations\Filter_Loading_Simulations.asc


Date: Mon Jun 17 00:44:15 2019
Total elapsed time: 0.093 seconds.

tnom = 27
temp = 27
method = trap
totiter = 0
traniter = 0
tranpoints = 0
accept = 0
rejected = 0
matrix size = 12
fillins = 0
solver = Normal

