Circuit: * D:\GuitarPreamp\Preamp\Preamp_Simulation.asc

Direct Newton iteration for .op point succeeded.

Date: Sun Sep 11 17:18:27 2016
Total elapsed time: 0.077 seconds.

tnom = 27
temp = 27
method = modified trap
totiter = 13707
traniter = 13694
tranpoints = 6848
accept = 4826
rejected = 2022
matrix size = 11
fillins = 2
solver = Normal
Matrix Compiler1: 504 bytes object code size  0.1/0.1/[0.0]
Matrix Compiler2: off  [0.1]/0.2/0.1


